   1015.10     295.99      16.77
   156.25000     297.59476     15.66282      0.00000     0.00000
   468.75000     300.80389     13.45312      0.00000     0.00000
   781.25000     304.01300     11.24343      0.00000     0.00000
   1093.75000     307.14708      9.18622      0.00000     0.00000
   1406.25000     310.20613      7.28149      0.00000     0.00000
   1718.75000     313.47015      5.62922      0.00000     0.00000
   2031.25000     316.93914      4.22941      0.00000     0.00000
   2343.75000     319.81060      3.30204      0.00000     0.00000
   2656.25000     322.08455      2.84710      0.00000     0.00000
   2968.75000     324.77595      2.22719      0.00000     0.00000
   3281.25000     327.88481      1.44230      0.00000     0.00000
   3593.75000     330.66365      0.90987      0.00000     0.00000
   3906.25000     333.11246      0.62991      0.00000     0.00000
   4218.75000     335.34874      0.38995      0.00000     0.00000
   4531.25000     337.37250      0.18997      0.00000     0.00000
   4843.75000     339.20124      0.10249      0.00000     0.00000
   5156.25000     340.83494      0.12748      0.00000     0.00000
   5468.75000     342.41861      0.11748      0.00000     0.00000
   5781.25000     343.95224      0.07249      0.00000     0.00000
   6093.75000     345.54583      0.04999      0.00000     0.00000
   6406.25000     348.90155      0.05699      0.00000     0.00000
   6718.75000     352.38940      0.04870      0.00000     0.00000
   7031.25000     355.98943      0.02423      0.00000     0.00000
   7343.75000     359.66934      0.00818      0.00000     0.00000
   7656.25000     363.38394      0.00257      0.00000     0.00000
   7968.75000     373.88585      0.00017      0.00000     0.00000
   8281.25000     385.40649      0.00019      0.00000     0.00000
   8593.75000     397.25204      0.00021      0.00000     0.00000
   8906.25000     409.37726      0.00024      0.00000     0.00000
   9218.75000     421.75889      0.00026      0.00000     0.00000
   9531.25000     434.39596      0.00029      0.00000     0.00000
   9843.75000     447.28545      0.00032      0.00000     0.00000
   10156.25000     462.74373      0.00036      0.00000     0.00000
   10468.75000     474.90556      0.00040      0.00000     0.00000
   10781.25000     487.38702      0.00044      0.00000     0.00000
   11093.75000     500.19652      0.00048      0.00000     0.00000
   11406.25000     513.34268      0.00052      0.00000     0.00000
   11718.75000     526.83435      0.00057      0.00000     0.00000
   12031.25000     540.68061      0.00063      0.00000     0.00000
   12343.75000     554.89077      0.00069      0.00000     0.00000
   12656.25000     569.47440      0.00075      0.00000     0.00000
   12968.75000     584.44132      0.00083      0.00000     0.00000
   13281.25000     599.80160      0.00090      0.00000     0.00000
   13593.75000     615.56558      0.00099      0.00000     0.00000
   13906.25000     631.74387      0.00108      0.00000     0.00000
   14218.75000     648.34736      0.00119      0.00000     0.00000
   14531.25000     665.38722      0.00130      0.00000     0.00000
   14843.75000     682.87492      0.00142      0.00000     0.00000
