   1015.00     298.12      16.92
   312.50000     298.11966     16.92317      0.00000     0.00000
   937.50000     300.12289     12.39244      0.00000     0.00000
   1562.50000     302.59216     10.13903      0.00000     0.00000
   2187.50000     305.32361      8.99945      0.00000     0.00000
   2812.50000     307.96790      7.78671      0.00000     0.00000
   3437.50000     310.46161      6.57312      0.00000     0.00000
   4062.50000     313.03326      5.58106      0.00000     0.00000
   4687.50000     315.98187      4.64470      0.00000     0.00000
   5312.50000     318.93805      3.73481      0.00000     0.00000
   5937.50000     321.68137      2.89285      0.00000     0.00000
   6562.50000     324.24542      2.17918      0.00000     0.00000
   7187.50000     326.58084      1.59472      0.00000     0.00000
   7812.50000     328.62988      1.12460      0.00000     0.00000
   8437.50000     330.34393      0.76182      0.00000     0.00000
   9062.50000     331.68356      0.50104      0.00000     0.00000
   9687.50000     332.74765      0.31046      0.00000     0.00000
   10312.50000     333.57062      0.17921      0.00000     0.00000
   10937.50000     334.17099      0.09934      0.00000     0.00000
   11562.50000     334.61856      0.05258      0.00000     0.00000
   12187.50000     334.96805      0.02656      0.00000     0.00000
   12812.50000     335.26129      0.01276      0.00000     0.00000
   13437.50000     335.52692      0.00581      0.00000     0.00000
   14062.50000     335.78418      0.00250      0.00000     0.00000
   14687.50000     336.04721      0.00101      0.00000     0.00000
   15312.50000     336.32764      0.00038      0.00000     0.00000
   15937.50000     336.64081      0.00014      0.00000     0.00000
   16562.50000     337.02325      0.00004      0.00000     0.00000
   17187.50000     337.58218      0.00001      0.00000     0.00000
   17812.50000     338.61121      0.00000      0.00000     0.00000
   18437.50000     340.78220      0.00000      0.00000     0.00000
   19062.50000     344.96829     -0.00001      0.00000     0.00000
   19687.50000     350.82874     -0.00000      0.00000     0.00000
   20312.50000     355.34894     -0.00000      0.00000     0.00000
   20937.50000     370.38489     -0.00000      0.00000     0.00000
   21562.50000     391.88870     -0.00000      0.00000     0.00000
   22187.50000     415.74393     -0.00000      0.00000     0.00000
   22812.50000     439.40842     -0.00000      0.00000     0.00000
   23437.50000     461.40201     -0.00000      0.00000     0.00000
   24062.50000     481.94931     -0.00001      0.00000     0.00000
   24687.50000     502.20456     -0.00001      0.00000     0.00000
   25312.50000     522.91687     -0.00001      0.00000     0.00000
   25937.50000     544.34869     -0.00002      0.00000     0.00000
   26562.50000     566.84296     -0.00003      0.00000     0.00000
   27187.50000     590.33069     -0.00005      0.00000     0.00000
   27812.50000     614.81702     -0.00008      0.00000     0.00000
   28437.50000     640.31958     -0.00013      0.00000     0.00000
   29062.50000     666.87646     -0.00020      0.00000     0.00000
   29687.50000     694.53394     -0.00032      0.00000     0.00000
   30312.50000     722.19141     -0.00032      0.00000     0.00000
   30937.50000     749.84888     -0.00032      0.00000     0.00000
   31562.50000     777.50635     -0.00032      0.00000     0.00000
