   1015.10     298.06      17.41
   312.50000     298.06180     17.41029      0.00000     0.00000
   937.50000     301.27838     10.97858      0.00000     0.00000
   1562.50000     304.44186      7.89670      0.00000     0.00000
   2187.50000     307.17340      7.23723      0.00000     0.00000
   2812.50000     309.70081      6.79294      0.00000     0.00000
   3437.50000     312.32312      5.94432      0.00000     0.00000
   4062.50000     315.24405      4.92519      0.00000     0.00000
   4687.50000     318.30719      3.96108      0.00000     0.00000
   5312.50000     321.37375      3.17455      0.00000     0.00000
   5937.50000     324.48251      2.54236      0.00000     0.00000
   6562.50000     327.49982      1.92533      0.00000     0.00000
   7187.50000     330.22543      1.38196      0.00000     0.00000
   7812.50000     332.75330      0.99481      0.00000     0.00000
   8437.50000     335.03439      0.72740      0.00000     0.00000
   9062.50000     337.00134      0.53135      0.00000     0.00000
   9687.50000     338.72702      0.38753      0.00000     0.00000
   10312.50000     340.36749      0.26852      0.00000     0.00000
   10937.50000     342.10037      0.16563      0.00000     0.00000
   11562.50000     343.67914      0.09292      0.00000     0.00000
   12187.50000     344.62970      0.05676      0.00000     0.00000
   12812.50000     346.12634      0.03552      0.00000     0.00000
   13437.50000     348.08789      0.02105      0.00000     0.00000
   14062.50000     352.44080      0.01370      0.00000     0.00000
   14687.50000     359.12344      0.01039      0.00000     0.00000
   15312.50000     365.95844      0.00842      0.00000     0.00000
   15937.50000     378.05249      0.00655      0.00000     0.00000
   16562.50000     391.09497      0.00441      0.00000     0.00000
   17187.50000     405.00653      0.00227      0.00000     0.00000
   17812.50000     419.15765      0.00070      0.00000     0.00000
   18437.50000     432.41086      0.00003      0.00000     0.00000
   19062.50000     443.76956      0.00016      0.00000     0.00000
   19687.50000     452.82001      0.00083      0.00000     0.00000
   20312.50000     463.72998      0.00167      0.00000     0.00000
   20937.50000     474.89636      0.00238      0.00000     0.00000
   21562.50000     487.38535      0.00276      0.00000     0.00000
   22187.50000     500.19534      0.00282      0.00000     0.00000
   22812.50000     513.34100      0.00275      0.00000     0.00000
   23437.50000     526.83472      0.00278      0.00000     0.00000
   24062.50000     540.68372      0.00301      0.00000     0.00000
   24687.50000     554.90997      0.00345      0.00000     0.00000
   25312.50000     569.13623      0.00345      0.00000     0.00000
   25937.50000     583.36249      0.00345      0.00000     0.00000
   26562.50000     597.58875      0.00345      0.00000     0.00000
