   1015.10     298.53      17.81
   312.50000     298.52893     17.81114      0.00000     0.00000
   937.50000     300.85791     13.20874      0.00000     0.00000
   1562.50000     303.52786     11.33394      0.00000     0.00000
   2187.50000     306.37286     10.14290      0.00000     0.00000
   2812.50000     309.09079      8.59309      0.00000     0.00000
   3437.50000     311.80304      7.25832      0.00000     0.00000
   4062.50000     314.76767      6.24638      0.00000     0.00000
   4687.50000     317.87888      5.30666      0.00000     0.00000
   5312.50000     320.98468      4.36115      0.00000     0.00000
   5937.50000     324.15329      3.53562      0.00000     0.00000
   6562.50000     327.30429      2.80232      0.00000     0.00000
   7187.50000     330.24493      2.19052      0.00000     0.00000
   7812.50000     333.13947      1.68908      0.00000     0.00000
   8437.50000     335.71207      1.37641      0.00000     0.00000
   9062.50000     343.35925      1.17307      0.00000     0.00000
   9687.50000     351.63898      0.88902      0.00000     0.00000
   10312.50000     360.53882      0.53096      0.00000     0.00000
   10937.50000     369.68378      0.20962      0.00000     0.00000
   11562.50000     378.92325      0.02678      0.00000     0.00000
   12187.50000     388.31860      0.00044      0.00000     0.00000
   12812.50000     397.94864      0.03736      0.00000     0.00000
   13437.50000     407.82632      0.11965      0.00000     0.00000
   14062.50000     417.94098      0.20445      0.00000     0.00000
   14687.50000     428.29483      0.26008      0.00000     0.00000
   15312.50000     438.89606      0.28160      0.00000     0.00000
   15937.50000     449.78549      0.28536      0.00000     0.00000
   16562.50000     460.98361      0.29256      0.00000     0.00000
   17187.50000     472.32516      0.31611      0.00000     0.00000
   17812.50000     483.55432      0.35710      0.00000     0.00000
   18437.50000     496.01880      0.40947      0.00000     0.00000
   19062.50000     514.95789      0.46559      0.00000     0.00000
   19687.50000     543.49493      0.52052      0.00000     0.00000
   20312.50000     576.56482      0.57483      0.00000     0.00000
   20937.50000     593.74475      0.63430      0.00000     0.00000
   21562.50000     609.21198      0.70229      0.00000     0.00000
   22187.50000     625.23389      0.77482      0.00000     0.00000
   22812.50000     641.67133      0.84804      0.00000     0.00000
   23437.50000     658.53790      0.92388      0.00000     0.00000
   24062.50000     675.84674      1.00744      0.00000     0.00000
   24687.50000     693.60986      1.09987      0.00000     0.00000
   25312.50000     711.37299      1.09987      0.00000     0.00000
   25937.50000     729.13611      1.09987      0.00000     0.00000
   26562.50000     746.89923      1.09987      0.00000     0.00000
